data_CONTCAR-gen17
_audit_creation_date              2020-01-03
_audit_creation_method            'Materials Studio'
_symmetry_space_group_name_H-M    'P-1'
_symmetry_Int_Tables_number       2
_symmetry_cell_setting            triclinic
loop_
_symmetry_equiv_pos_as_xyz
  x,y,z
  -x,-y,-z
_cell_length_a                    4.1695
_cell_length_b                    8.0746
_cell_length_c                    15.2043
_cell_angle_alpha                 104.7347
_cell_angle_beta                  91.6638
_cell_angle_gamma                 80.3765
loop_
_atom_site_label
_atom_site_type_symbol
_atom_site_fract_x
_atom_site_fract_y
_atom_site_fract_z
_atom_site_U_iso_or_equiv
_atom_site_adp_type
_atom_site_occupancy
Ag1    Ag    0.53423   0.73872   0.60533   0.01267  Uiso   1.00
Bi1    Bi   -0.00111   0.97975   0.81366   0.01267  Uiso   1.00
Bi3    Bi    0.84958   0.32965   0.67997   0.01267  Uiso   1.00
Se1    Se   -0.05003   0.97190   0.62101   0.01267  Uiso   1.00
Se2    Se    0.41963   0.26518   0.21695   0.01267  Uiso   1.00
Se3    Se    0.32037   0.40854   0.57049   0.01267  Uiso   1.00
Cl1    Cl    1.40355   0.26799   0.81851   0.01267  Uiso   1.00
Cl3    Cl    1.00000   0.00000  -0.00000   0.01267  Uiso   1.00
