data_CONTCAR-gen15
_audit_creation_date              2020-01-03
_audit_creation_method            'Materials Studio'
_symmetry_space_group_name_H-M    'P-1'
_symmetry_Int_Tables_number       2
_symmetry_cell_setting            triclinic
loop_
_symmetry_equiv_pos_as_xyz
  x,y,z
  -x,-y,-z
_cell_length_a                    4.1205
_cell_length_b                    5.0219
_cell_length_c                    6.3789
_cell_angle_alpha                 97.2668
_cell_angle_beta                  95.2608
_cell_angle_gamma                 73.9714
loop_
_atom_site_label
_atom_site_type_symbol
_atom_site_fract_x
_atom_site_fract_y
_atom_site_fract_z
_atom_site_U_iso_or_equiv
_atom_site_adp_type
_atom_site_occupancy
Y1     Y     0.21387   0.70638   0.23069   0.01267  Uiso   1.00
S1     S     0.25353   0.23884   0.46203   0.01267  Uiso   1.00
F1     F     1.28491   0.38496   0.92642   0.01267  Uiso   1.00
F3     F    -1.00000   1.00000   0.00000   0.01267  Uiso   1.00
