data_CONTCAR-gen7
_audit_creation_date              2020-01-03
_audit_creation_method            'Materials Studio'
_symmetry_space_group_name_H-M    'PM'
_symmetry_Int_Tables_number       6
_symmetry_cell_setting            monoclinic
loop_
_symmetry_equiv_pos_as_xyz
  x,y,z
  x,-y,z
_cell_length_a                    10.2369
_cell_length_b                    4.3843
_cell_length_c                    5.0276
_cell_angle_alpha                 90.0000
_cell_angle_beta                  103.0687
_cell_angle_gamma                 90.0000
loop_
_atom_site_label
_atom_site_type_symbol
_atom_site_fract_x
_atom_site_fract_y
_atom_site_fract_z
_atom_site_U_iso_or_equiv
_atom_site_adp_type
_atom_site_occupancy
Ba1    Ba    0.66113   1.00000   0.83463   0.01267  Uiso   1.00
Cu1    Cu    0.94823   1.00000   0.38372   0.01267  Uiso   1.00
Te2    Te    0.20485   1.00000   0.62206   0.01267  Uiso   1.00
F2     F     0.51812   1.00000   0.26639   0.01267  Uiso   1.00
F3     F     0.90965   1.00000   0.96854   0.01267  Uiso   1.00
Ba2    Ba    0.37801   0.50000   0.20433   0.01267  Uiso   1.00
Cu2    Cu    0.06861   0.50000   0.54875   0.01267  Uiso   1.00
Te1    Te    0.81180   0.50000   0.41247   0.01267  Uiso   1.00
F1     F     0.49959   0.50000   0.75912   0.01267  Uiso   1.00
